%NProcShared=2
#n M06L/6-311++G** SCRF=(Solvent=Water) Opt

 Title

-1 1
6       1.003016   -1.242558   -0.000855
6      -0.392623   -1.123734    0.000287
6      -1.073751    0.106043    0.014663
6      -0.236354    1.227499    0.005931
6       1.166213    1.157318    0.005104
6       1.791056   -0.089260    0.005702
17      -1.286307   -2.623665   -0.032253
17       3.514650   -0.205725    0.007863
17       1.780573   -2.790552   -0.012166
17      -0.900654    2.852041   -0.018800
17       2.144247    2.586598    0.004663
5      -2.765393    0.094386    0.039750
8      -3.109989   -0.589275    1.290386
8      -3.429027    1.403113    0.072327
1      -3.159702    1.951884   -0.666516
1      -4.036748   -0.835023    1.248460
8      -3.197850   -0.637307   -1.180889
1      -3.919651   -0.130717   -1.558501

