%NProcShared=2
#n M06L/6-311++G** SCRF=(Solvent=Water) Opt

 Title

-1 1
6       1.379373    0.246785   -0.004689
6       0.485777    1.336747   -0.018897
6      -0.915439    1.194800   -0.006773
6      -1.356921   -0.145224   -0.016285
6      -0.504708   -1.258676   -0.009294
6       0.881678   -1.060201    0.006148
5      -2.089390    2.437642    0.065457
8      -2.895286    2.204930    1.289396
8      -1.476101    3.757810    0.092249
1      -2.215242    4.368551    0.032049
1      -2.369400    2.480921    2.043260
8      -2.967966    2.394720   -1.109865
1      -3.598006    1.675869   -1.030963
35       1.305787    3.070313   -0.069765
35       2.061587   -2.544106    0.037901
35       3.264980    0.499017    0.003904
35      -3.240298   -0.544085   -0.051097
35      -1.177030   -3.037100   -0.013718

