%NProcShared=2
#n M06L/6-311++G** SCRF=(Solvent=Water) Opt

 Title

-1 1
8       2.709931   -0.089926   -1.271075
5       2.028337   -0.380372    0.026441
8       1.915926   -1.834159    0.275245
8       2.863061    0.291752    1.048669
6       0.510507    0.217123    0.039385
6      -0.627906   -0.591091    0.032307
6      -1.922283   -0.043480    0.006107
6      -2.105215    1.346113   -0.011856
6      -0.983595    2.164604   -0.003619
6       0.291256    1.603787    0.021130
6      -3.054078   -0.903907   -0.000141
7      -3.976287   -1.613682   -0.005770
1       2.258917   -0.555288   -1.978172
1       2.805304   -2.192272    0.321419
1       3.635884    0.645217    0.604559
1      -0.512848   -1.671020    0.051967
1      -3.105708    1.764036   -0.030093
1      -1.109630    3.243057   -0.014928
1       1.156946    2.263681    0.030842

