%NProcShared=2
#n M06L/6-311++G** SCRF=(Solvent=Water) Opt

 Title

-1 1
6       3.754664   -0.203088    1.182254
7       3.143622    0.355754   -0.016738
6       3.730691   -0.231296   -1.214299
6       1.704978    0.231947   -0.001944
6       0.921892    1.383220   -0.017500
6      -0.470097    1.290681   -0.004002
6      -1.144908    0.061874    0.029347
6      -0.326505   -1.081060    0.045567
6       1.063674   -1.009502    0.028046
5      -2.778108   -0.054001   -0.008263
8      -3.290499   -0.326576   -1.370846
8      -3.221701   -1.193907    0.857034
8      -3.428031    1.225447    0.358155
1       3.318353    0.257885    2.071121
1       4.827376    0.010407    1.176495
1       3.632033   -1.297184    1.268452
1       3.278363    0.210533   -2.104869
1       3.603664   -1.326740   -1.273012
1       4.803789   -0.020550   -1.233817
1       1.419496    2.349980   -0.039156
1      -1.054971    2.209287   -0.019832
1      -0.798738   -2.062958    0.073909
1       1.658188   -1.920941    0.040750
1      -3.026610   -1.216836   -1.609872
1      -2.635344   -1.276743    1.611223
1      -3.024906    1.567213    1.157522

