%NProcShared=2
#n M06L/6-311++G** SCRF=(Solvent=Water) Opt

 Title

-1 1
6      -4.095708   -1.103484   -0.013787
16      -3.428025    0.570636   -0.000266
6      -1.673612    0.303370    0.001207
6      -0.852898    1.437798   -0.012121
6       0.531155    1.301036   -0.013726
6       1.173151    0.053730    0.000364
6       0.319686   -1.059672    0.017054
6      -1.071322   -0.957303    0.015928
5       2.800778   -0.102130   -0.018829
8       3.264158   -0.745397   -1.275904
8       3.512279    1.189900   -0.015488
8       3.231621   -0.901427    1.177871
1      -5.179791   -0.994856   -0.024441
1      -3.789002   -1.650348   -0.906817
1      -3.807796   -1.659122    0.880030
1      -1.304698    2.427001   -0.022795
1       1.143092    2.201318   -0.029410
1       0.748928   -2.062979    0.029884
1      -1.674582   -1.858777    0.026764
1       2.760533   -1.548584   -1.417843
1       3.437243    1.568527    0.861556
1       2.463415   -1.239163    1.640137

