%NProcShared=2
#n M06L/6-311++G** SCRF=(Solvent=Water) Opt

 Title

-1 1
6       2.524291    0.784369   -0.008789
6       1.588089    1.816127   -0.020092
6       0.223904    1.536350   -0.008198
6      -0.257120    0.217013    0.018405
6       0.699917   -0.803371    0.029802
6       2.067388   -0.532302    0.015268
5      -1.846507   -0.129958    0.003775
8      -2.213474   -1.303901    0.851910
8      -2.592553    1.020360    0.553902
8      -2.190968   -0.424104   -1.423317
1       1.937381    2.845586   -0.036777
1      -0.488595    2.357175   -0.011927
1       0.390745   -1.847459    0.056570
8       2.926722   -1.602337    0.028856
1      -1.954079   -2.107344    0.396526
1      -3.470605    0.712081    0.788771
1      -3.122427   -0.657704   -1.464693
1       3.590933    0.993881   -0.015460
1       3.832553   -1.275695    0.018922

