%NProcShared=2
#n M06L/6-311++G** SCRF=(Solvent=Water) Opt

 Title

-1 1
6       1.120414    2.235121    0.091014
6       1.120812    0.843265    0.048576
6      -0.030192    0.028296    0.067059
6      -1.207778    0.793093    0.056938
6      -1.267409    2.185944    0.099888
6      -0.089025    2.912667    0.134922
35       2.899772    0.103895   -0.105743
1      -0.112226    3.996367    0.176283
1       2.056995    2.780418    0.083366
1      -2.226892    2.689688    0.099694
35      -2.973331   -0.002432   -0.089246
5       0.111975   -1.637632    0.115396
8       0.986284   -1.923401    1.266245
8      -1.126948   -2.394920    0.362264
1      -1.767234   -2.240295   -0.335279
1       1.401021   -2.776528    1.124997
8       0.687930   -2.039390   -1.194807
1       0.403943   -2.941316   -1.361459

