%NProcShared=2
#n M06L/6-311++G** SCRF=(Solvent=Water) Opt

 Title

-1 1
8      -2.916917   -0.104003    1.375158
5      -2.413507    0.000697   -0.017638
8      -2.936042   -1.165573   -0.780605
8      -2.959264    1.271465   -0.550917
6      -0.776145    0.004562   -0.055151
6      -0.030807   -1.184059   -0.012261
6       1.362546   -1.203295    0.016031
6       2.042068    0.007679   -0.000745
17       3.802557    0.010388    0.027388
6       1.359330    1.216373   -0.043948
6      -0.033886    1.193926   -0.069093
1      -2.549926   -0.888214    1.787954
1      -2.416928   -1.292200   -1.576831
1      -3.346071    1.756632    0.179322
1      -0.557661   -2.137088   -0.004365
1       1.913937   -2.137239    0.047407
1       1.909363    2.151643   -0.060132
1      -0.569479    2.140155   -0.108826

