%NProcShared=2
#n M06L/6-311++G** SCRF=(Solvent=Water) Opt

 Title

-1 1
8       3.625594    1.194998   -0.648419
5       3.038977   -0.010991    0.001953
8       3.432550   -0.126423    1.423010
8       3.583758   -1.178638   -0.725851
6       1.402574    0.016334   -0.008685
6       0.667321   -1.178891    0.009666
6      -0.722338   -1.202121    0.030213
6      -1.429159    0.000490    0.040516
6      -2.916376   -0.005078    0.003796
9      -3.407571    0.018371   -1.267597
9      -3.453955   -1.102100    0.581308
9      -3.462157    1.065838    0.623036
6      -0.736277    1.210237    0.017864
6       0.654225    1.202550   -0.005218
1       3.335106    1.984931   -0.187952
1       4.392217   -0.169405    1.453949
1       3.502832   -1.023100   -1.668997
1       1.210184   -2.121280    0.000696
1      -1.261415   -2.144566    0.044379
1      -1.284959    2.147198    0.023403
1       1.169255    2.161570   -0.024794

