%NProcShared=2
#n M06L/6-311++G** SCRF=(Solvent=Water) Opt

 Title

-1 1
6       3.002568   -1.886117    0.013261
8       3.050525   -0.470764    0.015608
6       1.853505    0.197095   -0.004201
6       1.942584    1.591815   -0.009174
6       0.772986    2.340799   -0.034147
6      -0.471358    1.710763   -0.052511
6      -0.586363    0.313790   -0.046627
5      -2.040861   -0.414510    0.003590
8      -2.918380    0.206062   -1.027459
8      -1.908507   -1.873259   -0.220022
8      -2.655900   -0.252040    1.360031
6       0.605048   -0.427643   -0.022802
1       2.481141   -2.273909    0.895253
1       2.509223   -2.271474   -0.885802
1       4.036752   -2.226446    0.029067
1       2.920591    2.062292    0.002283
1       0.839383    3.426099   -0.042966
1      -1.374566    2.317685   -0.080658
1      -3.826784    0.080277   -0.742468
1      -2.566993   -2.126690   -0.867381
1      -2.601375    0.671930    1.615137
1       0.531207   -1.510229   -0.028472

