%NProcShared=2
#n M06L/6-311++G** SCRF=(Solvent=Water) Opt

 Title

-1 1
8      -3.536483    0.865056   -0.623744
5      -2.715675   -0.201134    0.018611
8      -3.137664   -0.247219    1.436017
8      -3.005467   -1.495332   -0.670890
6      -1.119377    0.134171   -0.005303
6      -0.671006    1.484764   -0.016807
6       0.660519    1.825772   -0.018996
6       1.663636    0.825611   -0.008838
6       3.047055    1.126919   -0.016883
6       3.988942    0.124849   -0.003662
6       3.584276   -1.227597    0.018661
6       2.247436   -1.550972    0.025938
6       1.251004   -0.543542    0.011233
6      -0.136322   -0.839133    0.015054
1      -3.560461    0.695990   -1.567229
1      -4.096703   -0.193819    1.450428
1      -2.220532   -1.822045   -1.112118
1      -1.424254    2.269600   -0.034112
1       0.968400    2.869372   -0.031708
1       3.353397    2.169836   -0.033761
1       5.046414    0.369620   -0.010084
1       4.334473   -2.012244    0.029568
1       1.934061   -2.591972    0.042244
1      -0.416476   -1.893752    0.040278

