%NProcShared=2
#n M06L/6-311++G** SCRF=(Solvent=Water) Opt

 Title

-1 1
8       4.357288   -0.633242   -0.019351
6       3.574647    0.303750   -0.002030
6       2.120831    0.202723   -0.005523
6       1.465684   -1.038837   -0.030924
6       0.083394   -1.086921   -0.032996
6      -0.714893    0.076516   -0.004599
5      -2.339523   -0.035477    0.005074
8      -2.784768   -0.759816    1.238191
8      -2.846219   -0.763987   -1.197809
8      -2.912395    1.312951   -0.030528
6      -0.034537    1.304190    0.017771
6       1.352489    1.373502    0.016796
1       3.956154    1.350885    0.019166
1       2.062872   -1.946430   -0.051096
1      -0.404431   -2.061267   -0.061890
1      -2.077003   -1.301281    1.590687
1      -2.838854   -1.705075   -1.012897
1      -3.841700    1.228012   -0.253329
1      -0.618406    2.220303    0.034429
1       1.862035    2.335464    0.034569

