%NProcShared=2
#n M06L/6-311++G** SCRF=(Solvent=Water) Opt

 Title

-1 1
8      -3.603806   -0.101659    1.379339
5      -3.105305    0.001707   -0.015162
8      -3.631160   -1.164603   -0.775493
8      -3.651302    1.272580   -0.547646
6      -1.467968    0.004062   -0.057290
6      -0.723455   -1.185030   -0.016457
6       0.670247   -1.205242    0.008354
6       1.354487    0.004600   -0.010030
35       3.269125    0.005823    0.016486
6       0.669087    1.213403   -0.051600
6      -0.724509    1.192523   -0.073122
1      -3.237319   -0.886719    1.790976
1      -3.116547   -1.290827   -1.574707
1      -4.035747    1.758588    0.183278
1      -1.250923   -2.137848   -0.007304
1       1.215215   -2.143271    0.038457
1       1.214311    2.151725   -0.069322
1      -1.259017    2.139571   -0.111321

