%NProcShared=2
#n M06L/6-311++G** SCRF=(Solvent=Water) Opt

 Title

-1 1
6       3.452242   -0.774392   -1.232078
6       2.958352   -0.000422   -0.001760
6       3.449732   -0.713082    1.266256
6       3.572635    1.398457   -0.036807
6       1.430030    0.038191   -0.000969
6       0.693586    1.224875    0.008206
6      -0.703310    1.208699    0.018881
6      -1.449920    0.025409    0.016931
5      -3.081141   -0.015454   -0.009039
8      -3.479152   -0.151393   -1.431126
8      -3.688938    1.196498    0.620324
8      -3.638585   -1.176957    0.726514
6      -0.692800   -1.157093    0.006285
6       0.698078   -1.157531   -0.000112
1       3.125058   -0.292174   -2.158215
1       4.546147   -0.818542   -1.244496
1       3.079625   -1.802005   -1.241153
1       3.123131   -0.183891    2.166659
1       3.072015   -1.737393    1.325688
1       4.543547   -0.760484    1.282476
1       3.288804    1.991645    0.837380
1       3.273059    1.952748   -0.931215
1       4.663959    1.325033   -0.044289
1       1.206593    2.181981    0.009697
1      -1.219701    2.169178    0.033735
1      -4.439304   -0.186611   -1.456992
1      -3.344598    1.984674    0.195160
1      -3.519872   -1.031955    1.667295
1      -1.219197   -2.110425    0.011317
1       1.228088   -2.108368   -0.002550

