%NProcShared=2
#n M06L/6-311++G** SCRF=(Solvent=Water) Opt

 Title

-1 1
6      -1.447008   -2.436566    0.013584
6      -0.154912   -1.927078    0.002227
6       0.153453   -0.553203    0.004968
6      -0.992438    0.267332    0.009706
6      -2.309058   -0.211185    0.009291
6      -2.541049   -1.572939    0.017718
5       1.783022   -0.176585   -0.007001
8       2.107383    0.300276    1.349546
8       2.592088   -1.390598   -0.251067
1       3.051912    0.172641    1.468490
1       2.739611   -1.470770   -1.195336
8       2.142366    0.751137   -1.102757
1       1.677201    1.576962   -0.950340
7      -0.885913    1.739526    0.012945
8       0.214203    2.260626    0.183990
8      -1.909969    2.405197   -0.151290
1      -1.604976   -3.511421    0.020437
1       0.685339   -2.613427   -0.009427
1      -3.128905    0.494735    0.010019
1      -3.556404   -1.953739    0.028211

