%NProcShared=2
#n M06L/6-311++G** SCRF=(Solvent=Water) Opt

 Title

-1 1
6      -4.027783    1.128854    0.002479
6      -3.241314   -0.155481   -0.001330
8      -3.821232   -1.237133    0.003020
6      -1.763100   -0.077359   -0.010729
6      -1.010231   -1.261564   -0.025924
6       0.374581   -1.216804   -0.035881
6       1.086048   -0.001908   -0.031949
5       2.712803    0.032393    0.011854
8       3.197268   -1.050355   -0.880305
8       3.277758    1.343911   -0.405074
8       3.200281   -0.183300    1.402847
6       0.314686    1.169770   -0.016499
6      -1.075243    1.144044   -0.006339
1      -3.782671    1.735741    0.878167
1      -5.094037    0.909953    0.007449
1      -3.790502    1.735717   -0.875390
1      -1.541239   -2.209151   -0.031257
1       0.935656   -2.148636   -0.052028
1       4.157239   -1.041446   -0.856480
1       3.104869    1.466958   -1.340843
1       2.467917   -0.180929    2.018877
1       0.828556    2.128670   -0.017918
1      -1.628272    2.078869    0.003272

