%NProcShared=2
#n M06L/6-311++G** SCRF=(Solvent=Water) Opt

 Title

-1 1
6       0.354925    0.029761    0.014151
6      -0.414630    1.198029    0.037034
6      -1.811354    1.187748    0.029421
6      -2.487514   -0.027843   -0.003607
6      -1.762060   -1.218849   -0.024692
6      -0.372046   -1.172349   -0.013658
5       1.982962    0.019576    0.022097
8       2.432556   -0.736569   -1.186929
1       3.352896   -0.508071   -1.340834
8       2.568492    1.387484    0.027324
1       2.208327    1.884246   -0.710675
8       2.485431   -0.645736    1.257066
1       3.080405   -1.345569    0.984934
8      -3.856870   -0.115558   -0.013439
1      -4.224896    0.774193    0.003126
1      -2.298060   -2.163605   -0.046479
1       0.089298    2.163074    0.068816
1      -2.376044    2.117517    0.050503
1       0.172470   -2.115607   -0.023946

