%NProcShared=2
#n M06L/6-311++G** SCRF=(Solvent=Water) Opt

 Title

-1 1
8       3.724663    0.276874   -0.732008
5       2.647669   -0.449186   -0.023224
8       2.457247   -1.762235   -0.663850
8       3.116380   -0.563131    1.396105
6       1.210345    0.322234   -0.065192
6       1.127550    1.721125   -0.046739
6      -0.089381    2.400264   -0.018455
6      -1.282662    1.689323   -0.011182
6      -1.232396    0.294682   -0.035343
6      -2.517055   -0.460331   -0.000491
9      -2.372026   -1.779587   -0.231786
9      -3.413688   -0.006424   -0.913018
9      -3.145731   -0.354728    1.202744
6      -0.007940   -0.371860   -0.059590
1       4.092959    0.933980   -0.138377
1       3.301195   -2.219639   -0.641880
1       2.408701   -0.920610    1.936688
1       2.049290    2.301004   -0.060638
1      -0.112309    3.486072   -0.006105
1      -2.237907    2.204552    0.008036
1       0.005647   -1.457470   -0.083087

