%NProcShared=2
#n M06L/6-311++G** SCRF=(Solvent=Water) Opt

 Title

-1 1
8       2.231791   -1.032406   -1.158091
5       1.687098   -0.278136    0.000149
8       2.231667   -1.032238    1.158544
8       2.144305    1.122273    0.000031
6       0.038533   -0.370379    0.000089
6      -0.455130   -1.692658    0.000286
6      -1.802985   -2.021819    0.000240
6      -2.756956   -1.005611   -0.000021
6      -2.333566    0.315036   -0.000218
6      -0.965067    0.599361   -0.000156
17      -0.585926    2.337785   -0.000408
1       1.954140   -0.591404   -1.962684
1       1.953113   -0.591730    1.963094
1       3.104544    1.083758    0.000184
1       0.286239   -2.488296    0.000486
1      -2.113167   -3.062772    0.000403
1      -3.818279   -1.233183   -0.000068
1      -3.052414    1.127346   -0.000419

