%NProcShared=2
#n M06L/6-311++G** SCRF=(Solvent=Water) Opt

 Title

-1 1
8      -3.226264    1.115111    0.273531
5      -2.481025   -0.127634    0.018465
8      -2.844156   -1.134113    1.068515
8      -2.889353   -0.684768   -1.316506
6      -0.886793    0.197053    0.029148
6      -0.377796    1.501037    0.010224
6       0.996717    1.797769   -0.018820
6       1.857681    0.723779   -0.028918
6       1.385676   -0.580053   -0.013215
6       0.039755   -0.870338    0.015833
8       2.454801   -1.449191   -0.077519
6       3.597836   -0.634912    0.174288
8       3.233923    0.714968   -0.106825
1      -4.132603    0.868958    0.469553
1      -3.094035   -1.940425    0.614637
1      -2.160056   -1.173263   -1.702331
1      -1.082871    2.327536    0.029041
1       1.365771    2.817955   -0.034633
1      -0.300660   -1.903225    0.037578
1       4.416056   -0.937789   -0.480618
1       3.883463   -0.723647    1.233638

