%NProcShared=2
#n M06L/6-311++G** SCRF=(Solvent=Water) Opt

 Title

-1 1
6       1.060080   -0.017023    0.026360
6       0.312421    1.168596   -0.073923
6      -1.074549    1.171941   -0.087561
6      -1.786930   -0.033427   -0.004969
6      -1.062750   -1.228410    0.079735
6       0.325024   -1.210846    0.099207
5       2.687059    0.024680    0.011503
8       3.199235   -1.288504    0.469660
1       4.086949   -1.393012    0.120089
8       3.185571    0.337371   -1.361244
1       2.817191   -0.296268   -1.981350
8       3.159036    1.127257    0.884606
1       3.861228    0.780840    1.436397
6      -3.261383   -0.111773   -0.011264
1      -1.612883   -2.162598    0.140378
1       0.838234    2.118174   -0.142509
1      -1.589674    2.126036   -0.185164
1       0.868225   -2.148987    0.178302
8      -3.954785    1.044836    0.131012
1      -3.352288    1.784481    0.282480
8      -3.892026   -1.141762   -0.132990

