%NProcShared=2
#n M06L/6-311++G** SCRF=(Solvent=Water) Opt

 Title

-1 1
8       1.291043    2.892462    0.025402
6       0.506440    1.952205   -0.002850
6       0.901915    0.536114   -0.003344
6       2.272226    0.230593    0.017196
6       2.700411   -1.085864    0.014326
6       1.746094   -2.104194   -0.014693
6       0.388831   -1.794630   -0.039105
6      -0.088209   -0.475984   -0.030001
5      -1.699361   -0.157856   -0.027340
8      -2.511102   -1.401791   -0.007804
8      -2.010122    0.572184   -1.264003
8      -2.060059    0.705039    1.147391
1      -0.583065    2.130145   -0.035001
1       2.986589    1.049285    0.034003
1       3.759443   -1.323707    0.030430
1       2.066226   -3.142942   -0.022336
1      -0.330862   -2.609416   -0.075057
1      -2.283293   -1.948545    0.747071
1      -2.946849    0.785944   -1.247584
1      -2.415714    0.155924    1.848110

