%NProcShared=2
#n M06L/6-311++G** SCRF=(Solvent=Water) Opt

 Title

-1 1
O -1.6405  0.1764  1.4813
B -1.3791  0.1255  0.0277
O -1.7716  1.3869 -0.5637
O -2.1407 -0.9820 -0.5170
C  0.1973 -0.1412 -0.1925
C  1.1322  0.7500  0.2298
C  2.4407  0.4301 -0.0050
S  2.3444 -1.0757 -0.7936
C  0.6576 -1.2675 -0.8094
H -0.9101 -0.3577  1.9124
H -1.0512  2.0245 -0.7217
H -2.1357 -1.7353  0.1406
H  0.8908  1.7173  0.7517
H  3.3311  1.0357  0.2691
H  0.0348 -2.0870 -1.2097
        
