%NProcShared=2
#n M06L/6-311++G** SCRF=(Solvent=Water) Opt

 Title

-1 1
O -2.0308 -1.0813  0.9186
B -1.5550 -0.0720 -0.0280
O -2.0443  1.2675  0.3524
O -2.0502 -0.3170 -1.3983
C  0.0329 -0.0951  0.0019
C  0.8438  0.9993 -0.2079
C  2.1450  0.5592 -0.0976
C  2.0789 -0.7911  0.1761
O  0.8075 -1.1059  0.2199
H -1.2905 -1.6992  1.1714
H -1.3353  1.8628  0.6669
H -2.1688 -1.2993 -1.4656
H  0.5347  2.0121 -0.4188
H  3.0626  1.1490 -0.2030
H  2.9695 -1.3891  0.3120
        
