%NProcShared=2
#n M06L/6-311++G** SCRF=(Solvent=Water) Opt

 Title

-1 1
C  1.7275  0.6054  0.0908
C  0.8259 -0.3003 -0.2101
B -0.7292 -0.0154 -0.0245
O -1.4678 -0.3415 -1.2504
O -0.8822  1.3626  0.3903
O -1.2258 -0.8774  1.0615
H  1.4701  1.5999  0.4829
H  2.7644  0.3916 -0.0420
H  1.1630 -1.2572 -0.5918
H -1.2919 -1.3141 -1.4235
H -1.7921  1.7337  0.2129
H -0.5618 -1.5874  1.3038
        
