%NProcShared=2
#n M06L/6-311++G** SCRF=(Solvent=Water) Opt

 Title

-1 1
O  0.8058  1.3830 -0.8702
B  1.0212  0.0548 -0.3084
O  1.8957 -0.7824 -1.1098
O  1.6750  0.2580  1.0135
C -0.3867 -0.6238  0.0012
C -1.3473  0.3119  0.7264
C -1.6179 -0.2096 -0.6646
H  1.1670  2.1162 -0.3054
H  2.6892 -1.0808 -0.6080
H  1.4508 -0.5274  1.5756
H -0.2808 -1.6618  0.3998
H -1.1277  1.3895  0.7585
H -1.8503 -0.1336  1.5968
H -1.6496  0.4732 -1.5226
H -2.4444 -0.9672 -0.6827
        
