%NProcShared=2
#n M06L/6-311++G** SCRF=(Solvent=Water) Opt

 Title

-1 1
O  2.3987 -0.7294  0.9491
B  1.5391 -0.0234 -0.0447
O  1.8018 -0.4707 -1.3929
O  1.9469  1.4066  0.0635
C  0.0698 -0.1346  0.4388
C -0.8150  1.0972  0.1901
C -1.9532  0.0631  0.1795
C -0.9114 -0.8380 -0.5035
H  1.9714 -1.6005  1.1202
H  1.1676 -1.1403 -1.7225
H  1.1588  1.9917  0.1917
H -0.1054 -0.4840  1.4586
H -0.6550  1.4875 -0.8340
H -0.8507  1.8109  1.0068
H -2.8108  0.3202 -0.4192
H -2.1058 -0.3160  1.2025
H -1.0424 -1.9043 -0.3220
H -0.8043 -0.5360 -1.5619
        
