%NProcShared=2
#n M06L/6-311++G** SCRF=(Solvent=Water) Opt

 Title

-1 1
O -2.3783  1.2781 -0.6430
B -2.0372  0.0643  0.1035
O -2.3969 -1.0857 -0.7451
O -2.9028  0.0151  1.2803
C -0.4918 -0.0109  0.4711
C  0.1966  1.1348 -0.2297
C  1.6313  1.2371  0.2297
C  2.3206 -0.0449 -0.1006
C  1.4606 -1.1010 -0.6749
C  0.1345 -1.2887 -0.0325
H -2.3823  2.0815 -0.0808
H -2.9595 -1.7289 -0.2709
H -2.4178 -0.0634  2.1221
H -0.3727  0.0234  1.5755
H -0.3208  2.0887 -0.1452
H  0.2412  0.8456 -1.3186
H  2.0648  2.1228 -0.3219
H  1.6848  1.4157  1.3182
H  3.1120  0.2015 -0.8697
H  2.9154 -0.4246  0.7766
H  1.3324 -0.9192 -1.7813
H  2.0162 -2.0807 -0.5865
H -0.5667 -1.6769 -0.8300
H  0.1164 -2.0838  0.7536
        
