%NProcShared=2
#n M06L/6-311++G** SCRF=(Solvent=Water) Opt

 Title

-1 1
C -2.4411 -0.8069 -0.0202
C -1.0304 -1.2162 -0.1288
N -0.5369 -2.4450 -0.3474
O  0.7770 -2.3894 -0.3758
C  1.1772 -1.1374 -0.1791
C  2.5915 -0.6780 -0.1432
C  0.0418 -0.3710 -0.0190
B  0.0150  1.1402  0.2332
O  1.2433  1.5101  0.9635
O -1.1143  1.6042  1.0310
O  0.0509  1.9286 -1.0273
H -3.1219 -1.6978  0.0818
H -2.6481 -0.1674  0.8469
H -2.8047 -0.2960 -0.9597
H  2.9355 -0.7233  0.9224
H  3.2543 -1.3663 -0.7079
H  2.6800  0.3793 -0.4984
H  1.1536  2.4860  1.1421
H -1.4582  2.4846  0.7624
H -0.7643  1.7617 -1.5765
        
