%NProcShared=2
#n M06L/6-311++G** SCRF=(Solvent=Water) Opt

 Title

-1 1
O -2.2182  0.8310  0.4772
B -1.4637 -0.2600 -0.1964
O -1.9397 -1.5135  0.4405
O -1.8706 -0.3249 -1.5973
C  0.0630 -0.0946  0.0013
C  0.6663  1.1489 -0.0553
N  1.9948  1.2795  0.1183
C  2.8009  0.2291  0.3529
N  2.2214 -0.9827  0.4093
C  0.8970 -1.1696  0.2427
H -2.0425  1.6897 -0.0018
H -1.4173 -1.5695  1.3016
H -1.9984  0.5404 -2.0264
H  0.0029  1.9881 -0.2455
H  3.8770  0.3585  0.4908
H  0.4272 -2.1504  0.2882
        
