%NProcShared=2
#n M06L/6-311++G** SCRF=(Solvent=Water) Opt

 Title

-1 1
O -2.2274  1.1611  0.0499
B -1.6964 -0.2056  0.1326
O -2.1277 -0.8879  1.3656
O -2.1642 -1.0094 -1.0020
C -0.1351 -0.1397  0.0463
C  0.5894  1.0113  0.2412
C  1.9591  0.9826  0.1473
C  2.6413 -0.1809 -0.1405
N  1.9002 -1.2889 -0.3253
C  0.5566 -1.3020 -0.2419
H -1.8274  1.5651 -0.7599
H -1.4549 -0.7052  2.0942
H -2.2768 -0.3841 -1.7637
H  0.0285  1.9078  0.4652
H  2.5139  1.9073  0.3056
H  3.7381 -0.2110 -0.2172
H -0.0174 -2.2204 -0.3976
        
