%NProcShared=2
#n M06L/6-311++G** SCRF=(Solvent=Water) Opt

 Title

-1 1
O         -1.97931       -1.17261       -1.99280
B         -2.22910        0.21800       -1.56211
C         -1.00174        0.82008       -0.71436
C          0.19497        0.13788       -0.41224
C          1.18066        0.74771        0.32444
N          2.23629       -0.05906        0.50426
C          1.93238       -1.21236       -0.12755
C          0.67270       -1.12989       -0.71043
N          1.06581        2.01263        0.79439
C         -0.06997        2.71789        0.53028
C         -1.11378        2.14124       -0.22125
O         -3.47245        0.26629       -0.75247
H         -2.19916       -1.76163       -1.22591
H          3.11499        0.15830        1.02467
H          2.58861       -2.07174       -0.16719
H          0.19955       -1.91740       -1.27550
H         -0.16969        3.72880        0.90230
H         -2.00351        2.72953       -0.41021
H         -3.27299       -0.17545        0.11302
O         -2.41219        1.03789       -2.77840
H         -2.90864        1.85335       -2.51083
        
