%NProcShared=2
#n M06L/6-311++G** SCRF=(Solvent=Water) Opt

 Title

-1 1
O  -2.253649   -1.478830   -0.783701
B  -2.096070   -0.189478   -0.157475
C  -0.702924    0.501119   -0.119028
C   0.399227   -0.317978   -0.003257
C   1.676822    0.242171    0.036542
N   2.566117   -0.767982    0.151865
C   1.891600   -1.929256    0.185022
C   0.530906   -1.684077    0.089919
N   1.787708    1.581826   -0.040728
C   0.731950    2.399992   -0.153738
C  -0.539345    1.867447   -0.194909
O  -3.129410    0.364225    0.728542
H  -2.659242   -2.155276   -0.179579
H   3.604495   -0.597722    0.202043
H   2.336883   -2.900054    0.271806
H  -0.285784   -2.392145    0.086311
H   0.857594    3.493408   -0.214825
H  -1.437462    2.469545   -0.285193
H  -3.277863   -0.226952    1.526825
O-----------------------------------
H    1.5037454           0.8661529           0.5784553
  7F)
