%NProcShared=2
#n M06L/6-311++G** SCRF=(Solvent=Water) Opt

 Title

-1 1
O -1.7228 -1.3099  0.9650
B -1.4382 -0.1845  0.0526
O -2.1112  1.0452  0.4786
O -1.9600 -0.5356 -1.2748
C  0.1316 -0.0097  0.0289
C  0.8638  1.1003 -0.3050
N  2.1530  1.0118 -0.2516
C  2.7293 -0.1186  0.1149
S  1.3875 -1.1287  0.4053
H -0.9203 -1.8740  1.0929
H -1.4125  1.7632  0.5612
H -1.8370 -1.4893 -1.4539
H  0.3376  2.0278 -0.6067
H  3.7994 -0.2979  0.1925
        
