%NProcShared=2
#n M06L/6-311++G** SCRF=(Solvent=Water) Opt

 Title

-1 1
C -0.9943  1.8552 -0.0579
N -1.1308  0.4274 -0.0364
N -2.3035 -0.1823  0.0034
C -2.1325 -1.5135  0.0153
C -0.7695 -1.7154 -0.0197
C -0.1534 -0.4800 -0.0520
B  1.3647 -0.2274 -0.0968
O  1.7881  0.9285 -0.8518
O  1.9635 -0.1453  1.2594
O  2.0016 -1.4022 -0.7364
H -1.5112  2.2859  0.8490
H -1.5335  2.2755 -0.9335
H  0.0151  2.2314 -0.0633
H -2.8980 -2.3043  0.0462
H -0.3252 -2.7032 -0.0196
H  2.3214  1.5657 -0.2877
H  1.3477  0.2824  1.9006
H  2.9497 -1.1785 -0.9188
        
