%NProcShared=2
#n M06L/6-311++G** SCRF=(Solvent=Water) Opt

 Title

-1 1
O -1.8444 -0.4770  1.2625
B -1.3802  0.0946  0.0007
O -1.8281  1.4917 -0.0634
O -2.0243 -0.6815 -1.0825
C  0.1746  0.0006 -0.0928
C  1.1462  0.8885  0.2721
C  2.4060  0.3488 -0.0108
N  2.1304 -0.8570 -0.5408
N  0.8248 -1.0671 -0.5916
H -1.1198 -0.9722  1.7472
H -1.0728  2.1203 -0.0467
H -2.1243 -1.6145 -0.7604
H  0.9707  1.8442  0.7052
H  3.3639  0.8190  0.1677
H  0.3772 -1.9384 -0.9663
        
