%NProcShared=2
#n M06L/6-311++G** SCRF=(Solvent=Water) Opt=(TS,CalcFC,noeigentest)

 Title

-1 1
C -3.8228 -0.0155 -0.8070
O -2.9208 -0.7117  0.0285
C -1.5670 -0.4102  0.0842
C -0.7543 -1.1379  0.9263
C  0.5991 -0.8874  1.0273
C  1.1682  0.1117  0.2744
B  2.7125  0.3849  0.4010
O  3.3466 -0.7304  1.1195
O  3.2599  0.3802 -0.9694
O  2.9981  1.6246  1.0880
C  0.3837  0.8600 -0.5792
C -0.9758  0.5874 -0.6620
H -3.3161  0.1403 -1.7796
H -4.1167  0.9372 -0.3164
H -4.7163 -0.6909 -0.9269
H -1.1996 -1.9250  1.5201
H  1.2521 -1.4586  1.6919
H  3.3987 -1.5576  0.5764
H  2.8899 -0.4594 -1.3895
H  2.1944  2.1477  1.2733
H  0.7958  1.6480 -1.1818
H -1.6097  1.1625 -1.3255
        
