%NProcShared=2
#n M06L/6-311++G** SCRF=(Solvent=Water) Opt

 Title

-1 1
C  2.0811 -0.2703  1.3607
O  1.4796  0.6207  0.4412
C  0.2167  0.3494 -0.1030
C -0.5081 -0.7673  0.2066
C -1.7512 -1.0458 -0.3217
C -2.2871 -0.1326 -1.2182
C -1.5696  1.0100 -1.5489
C -0.3127  1.2601 -0.9943
H  2.1414 -1.3048  0.9641
H  3.1164  0.0802  1.5353
H  1.5235 -0.2746  2.3414
H -0.0770 -1.4702  0.9074
H -2.2799 -1.9533 -0.0356
H -1.9786  1.7417 -2.2556
H  0.2056  2.1569 -1.2794
        
