%NProcShared=2
#n M06L/6-311++G** SCRF=(Solvent=Water) Opt=(TS,CalcFC,noeigentest)

 Title

-1 1
O -2.4016  1.1281  0.1549
B -1.7037 -0.1198 -0.1262
O -2.0737 -1.0908  0.9399
O -2.0683 -0.7135 -1.3965
C -0.1515  0.0207 -0.0758
C  0.4884  1.2606 -0.1024
F -0.2704  2.3650 -0.1740
C  1.8652  1.2998 -0.0543
F  2.4578  2.5251 -0.0820
C  2.5838  0.1313  0.0185
F  3.9376  0.1597  0.0662
C  1.9612 -1.0964  0.0452
F  2.7037 -2.2200  0.1171
C  0.5816 -1.1472 -0.0025
F -0.0334 -2.3644  0.0241
H -3.2507  0.9638  0.6458
H -1.7024 -0.7087  1.7742
H -2.9237 -0.3935 -1.7722
        
