%NProcShared=2
#n M06L/6-311++G** SCRF=(Solvent=Water) Opt

 Title

-1 1
C  0.1308 -1.6195  0.0042
C  1.2732 -0.8402  0.0158
F  2.5007 -1.4197  0.0306
C  1.1551  0.5345  0.0121
F  2.2701  1.3047  0.0233
C -0.0805  1.1400 -0.0029
F -0.2106  2.4823 -0.0067
C -1.2128  0.3417 -0.0142
F -2.4415  0.9030 -0.0290
C -1.1310 -1.0325 -0.0109
F -2.2534 -1.7943 -0.0223
        
