%NProcShared=2
#n M06L/6-311++G** SCRF=(Solvent=Water) Opt

 Title

-1 1
C  0.4522 -1.5080 -0.0738
C -0.8910 -1.2211 -0.0622
C -1.2828  0.0935  0.0022
C -0.3168  1.0975  0.0537
C  1.0144  0.7962  0.0414
C  1.4090 -0.5155 -0.0228
H -1.6170 -2.0045 -0.1024
H -2.3300  0.3646  0.0136
H -0.6513  2.1231  0.1039
H  1.7565  1.5714  0.0812
H  2.4569 -0.7971 -0.0347
        
