%NProcShared=2
#n M06L/6-311++G** SCRF=(Solvent=Water) Opt=(TS,CalcFC,noeigentest)

 Title

-1 1
O -2.2886 -1.2066  0.3794
B -1.7481  0.0629 -0.1408
O -2.0719  0.0835 -1.5927
O -2.3422  1.1928  0.5613
C -0.1916  0.0098 -0.0094
C  0.4477 -1.2163 -0.1064
C  1.8293 -1.3101  0.0044
C  2.5966 -0.1817  0.2140
C  1.9542  1.0344  0.3095
C  0.5764  1.1364  0.2000
F -0.0264  2.3339  0.2967
H -2.4783 -1.1155  1.3414
H -1.3564  0.5692 -2.0977
H -3.2628  1.3197  0.2128
H -0.1687 -2.0948 -0.2712
H  2.2832 -2.2996 -0.0794
H  3.6812 -0.2522  0.3013
H  2.5663  1.9343  0.4766
        
