%NProcShared=2
#n M06L/6-311++G** SCRF=(Solvent=Water) Opt=(TS,CalcFC,noeigentest)

 Title

-1 1
O -2.3676 -1.0336  0.7203
B -1.7749  0.0006 -0.1446
O -2.2118  1.3051  0.4183
O -2.2397 -0.0877 -1.5252
C -0.2094 -0.0503 -0.1030
C  0.4074 -1.2682  0.0758
C  1.7855 -1.2913  0.1095
C  2.5331 -0.1341 -0.0307
C  1.9253  1.0924 -0.2105
F  2.6591  2.2308 -0.3485
C  0.5459  1.0991 -0.2420
H -2.1053 -0.7941  1.6486
H -1.5002  1.5822  1.0698
H -3.2456 -0.0857 -1.4938
H -0.1415 -2.1980  0.1896
H  2.3058 -2.2311  0.2485
H  3.6188 -0.1598 -0.0031
H  0.0151  2.0236 -0.3791
        
