%NProcShared=2
#n M06L/6-311++G** SCRF=(Solvent=Water) Opt

 Title

-1 1
C  0.4779 -1.5084  0.0639
C -0.8778 -1.2792  0.0888
C -1.2605  0.0421  0.0319
C -0.3353  1.0621 -0.0450
F -0.7721  2.3619 -0.0994
C  1.0111  0.8003 -0.0680
C  1.4221 -0.5077 -0.0126
H -1.5870 -2.0852  0.1490
H -2.3229  0.2937  0.0478
H  1.7475  1.5932 -0.1283
H  2.4969 -0.7730 -0.0281
        
