%NProcShared=2
#n M06L/6-311++G** SCRF=(Solvent=Water) Opt

 Title

-1 1
C -0.2450 -1.5678 -0.0268
C -1.3451 -0.7412 -0.0693
C -1.1968  0.6376 -0.0488
C  0.0869  1.1429  0.0153
C  1.1881  0.3069  0.0578
F  2.4655  0.7899  0.1214
C  1.0355 -1.0648  0.0371
F  2.1216 -1.8873  0.0790
H -2.3381 -1.1452 -0.1190
H -2.0515  1.3076 -0.0815
H  0.2788  2.2214  0.0349
        
