%NProcShared=2
#n M06L/6-311++G** SCRF=(Solvent=Water) Opt=(TS,CalcFC,noeigentest)

 Title

-1 1
O -2.2295  0.8519  1.2348
B -1.7940 -0.1021  0.1804
O -2.5352  0.1582 -1.0451
O -2.2117 -1.4382  0.6630
C -0.2441 -0.0511 -0.0168
C  0.4668  1.1247  0.1278
C  1.8350  1.1773 -0.0447
C  2.5685  0.0566 -0.3717
F  3.9224  0.1122 -0.5418
C  1.8651 -1.1203 -0.5176
C  0.4969 -1.1718 -0.3448
F -0.2009 -2.3433 -0.4904
H -1.4288  1.0467  1.7942
H -2.2334  0.9542 -1.5377
H -2.9921 -1.3546  1.2310
H -0.1071  2.0108  0.3855
H  2.3908  2.1084  0.0708
H  2.4315 -2.0195 -0.7770
        
