%NProcShared=2
#n M06L/6-311++G** SCRF=(Solvent=Water) Opt

 Title

-1 1
C  0.2056 -1.5877  0.1760
C -1.0803 -1.0825  0.0839
C -1.2237  0.2820 -0.0739
F -2.4890  0.8075 -0.1676
C -0.1463  1.1445 -0.1417
C  1.1354  0.6158 -0.0471
C  1.2967 -0.7456  0.1108
F  2.5718 -1.1984  0.1967
H -1.9336 -1.7600  0.1370
H -0.3051  2.2111 -0.2663
H  1.9685  1.3132 -0.1030
        
