%NProcShared=2
#n M06L/6-311++G** SCRF=(Solvent=Water) Opt=(TS,CalcFC,noeigentest)

 Title

-1 1
O  2.5615  0.9725  0.3641
B  1.8057 -0.2330  0.1619
O  2.0309 -1.0984  1.3540
O  2.2796 -1.0351 -0.9929
C  0.2759 -0.0370  0.0318
C -0.3504  1.1871 -0.0773
C -1.7201  1.2843 -0.1899
F -2.2587  2.5186 -0.2927
C -2.4950  0.1478 -0.1954
C -1.9015 -1.0884 -0.0882
F -2.6869 -2.1955 -0.0959
C -0.5257 -1.1610  0.0237
H  2.2726  1.7605 -0.1241
H  1.4452 -0.6910  2.0642
H  2.6827 -0.4961 -1.6910
H  0.2544  2.0588 -0.0723
H -3.5775  0.2705 -0.2866
H -0.0926 -2.1646  0.1069
        
