%NProcShared=2
#n M06L/6-311++G** SCRF=(Solvent=Water) Opt

 Title

-1 1
C -0.0114 -1.5962 -0.2207
C  1.2058 -0.9542 -0.0990
C  1.2049  0.3998  0.0879
F  2.3640  1.0921  0.2149
C  0.0178  1.0957  0.1517
C -1.1918  0.4397  0.0284
F -2.3720  1.1393  0.0929
C -1.2121 -0.9261 -0.1607
H  2.1515 -1.4599 -0.1432
H  0.0143  2.1850  0.3020
H -2.1710 -1.4152 -0.2542
        
