%NProcShared=2
#n M06L/6-311++G** SCRF=(Solvent=Water) Opt=(TS,CalcFC,noeigentest)

 Title

-1 1
O -2.3418  0.6607  1.1776
B -1.7777  0.3310 -0.1521
O -2.4816 -0.8778 -0.6148
O -2.0049  1.4615 -1.0734
C -0.2377  0.1000 -0.0703
C  0.5494  0.8459  0.7727
C  1.9305  0.6422  0.8493
C  2.5113 -0.3257  0.0636
F  3.8679 -0.5458  0.1203
C  1.7054 -1.0630 -0.7750
F  2.2849 -2.0203 -1.5510
C  0.3304 -0.8691 -0.8595
F -0.4008 -1.6456 -1.7200
H -2.5186 -0.2071  1.6231
H -2.1341 -1.6449 -0.0965
H -1.9770  2.3346 -0.5952
H  0.1271  1.6105  1.4003
H  2.5672  1.2130  1.5009
        
