%NProcShared=2
#n M06L/6-311++G** SCRF=(Solvent=Water) Opt

 Title

-1 1
C  0.4914 -1.5657 -0.0370
C -0.8703 -1.3257 -0.0081
C -1.2955 -0.0092  0.0232
C -0.4066  1.0558  0.0263
F -0.8712  2.3283  0.0576
C  0.9528  0.8188 -0.0025
F  1.8579  1.8446 -0.0005
C  1.3779 -0.5074 -0.0340
F  2.7149 -0.7400 -0.0624
H -1.6113 -2.1258 -0.0091
H -2.3399  0.2262  0.0464
        
