%NProcShared=2
#n M06L/6-311++G** SCRF=(Solvent=Water) Opt=(TS,CalcFC,noeigentest)

 Title

-1 1
O -2.3709 -0.5810  1.2005
B -1.8050 -0.2927 -0.1166
O -2.3761  0.9986 -0.5452
O -2.1911 -1.2984 -1.1164
C -0.2568 -0.1060 -0.0489
C  0.5058 -0.7161  0.9151
C  1.8844 -0.5345  0.9552
F  2.5905 -1.1530  1.9188
C  2.5310  0.2609  0.0325
C  1.7483  0.8662 -0.9292
F  2.3914  1.6574 -1.8471
C  0.3810  0.6925 -0.9775
F -0.3743  1.3041 -1.9422
H -2.4433  0.2848  1.6762
H -2.1246  1.7361  0.0667
H -1.7335 -2.1667 -0.9722
H  0.0266 -1.3521  1.6608
H  3.6168  0.3998  0.0695
        
