%NProcShared=2
#n M06L/6-311++G** SCRF=(Solvent=Water) Opt

 Title

-1 1
C  0.0970 -1.5901 -0.1381
C -1.1459 -0.9927 -0.1281
C -1.2586  0.3779 -0.0101
F -2.4928  0.9755  0.0003
C -0.1048  1.1110  0.0952
C  1.1334  0.5055  0.0843
F  2.2563  1.2690  0.1912
C  1.2649 -0.8636 -0.0329
F  2.4963 -1.4160 -0.0394
H -2.0695 -1.5790 -0.2123
H -0.1762  2.2023  0.1898
        
