%NProcShared=2
#n M06L/6-311++G** SCRF=(Solvent=Water) Opt=(TS,CalcFC,noeigentest)

 Title

-1 1
O -2.4341 -0.6167  1.0474
B -1.8105  0.2087  0.0275
O -2.2928 -0.2845 -1.2858
O -2.1954  1.5987  0.1964
C -0.2625  0.0787  0.0194
C  0.4050 -0.8275  0.7858
C  1.7737 -0.9348  0.7717
F  2.4483 -1.8331  1.5303
C  2.4624 -0.0759 -0.0619
F  3.8159 -0.1466 -0.1080
C  1.8307  0.8627 -0.8605
C  0.4526  0.9284 -0.8080
F -0.1482  1.8472 -1.5912
H -2.4275 -1.5875  0.7801
H -1.8417 -1.1480 -1.4867
H -2.0252  1.9079  1.1077
H -0.1894 -1.4785  1.4236
H  2.4386  1.5010 -1.4878
        
