%NProcShared=2
#n M06L/6-311++G** SCRF=(Solvent=Water) Opt=(TS,CalcFC,noeigentest)

 Title

-1 1
O -2.2163 -1.2497  1.0834
B -1.8437 -0.0912  0.2472
O -2.5041 -0.1307 -1.0619
O -2.3231  1.1065  0.9736
C -0.2889  0.0273  0.0806
C  0.3896  1.1584  0.4749
C  1.7754  1.2477  0.3194
F  2.4157  2.3691  0.7148
C  2.5060  0.2244 -0.2258
F  3.8479  0.3574 -0.3563
C  1.8223 -0.9064 -0.6192
F  2.5241 -1.9166 -1.1546
C  0.4459 -1.0040 -0.4685
F -0.2369 -2.1112 -0.8519
H -1.5473 -1.9706  1.0276
H -2.3313 -0.9906 -1.5212
H -2.2456  1.9210  0.4352
H -0.1896  1.9591  0.9025
        
