%NProcShared=2
#n M06L/6-311++G** SCRF=(Solvent=Water) Opt

 Title

-1 1
C -0.0903 -1.6283 -0.0867
C  1.1563 -1.0230 -0.0484
C  1.2367  0.3510  0.0248
F  2.4567  0.9368  0.0620
C  0.0976  1.1298  0.0603
F  0.1970  2.4643  0.1315
C -1.1220  0.4828  0.0199
F -2.2814  1.2066  0.0525
C -1.2482 -0.8882 -0.0533
F -2.4884 -1.4583 -0.0897
H  2.0858 -1.5735 -0.0729
        
