%NProcShared=2
#n M06L/6-311++G** SCRF=(Solvent=Water) Opt=(TS,CalcFC,noeigentest)

 Title

-1 1
O -2.3298 -0.8028  1.0173
B -1.7596 -0.2702 -0.2158
O -2.3975  0.9936 -0.5529
O -2.0178 -1.2200 -1.3263
C -0.2269 -0.0599 -0.0756
C  0.4909 -0.6980  0.9160
F -0.2069 -1.5063  1.7479
C  1.8527 -0.5237  1.0563
C  2.5409  0.3104  0.1894
C  1.8469  0.9611 -0.8118
F  2.5294  1.7751 -1.6549
C  0.4713  0.7636 -0.9265
F -0.1621  1.4374 -1.9407
H -2.9320 -0.1704  1.4664
H -2.1811  1.6834  0.1430
H -1.5109 -2.0800 -1.1771
H  2.3711 -1.0460  1.8497
H  3.6215  0.4527  0.2957
        
