%NProcShared=2
#n M06L/6-311++G** SCRF=(Solvent=Water) Opt

 Title

-1 1
C  0.0438 -1.5693  0.0180
C  1.2427 -0.8839  0.0086
F  2.4503 -1.5063  0.0142
C  1.1750  0.4961 -0.0072
C -0.0430  1.1445 -0.0131
F -0.0489  2.5066 -0.0288
C -1.2125  0.4149 -0.0032
C -1.1850 -0.9667  0.0127
F -2.3528 -1.6382  0.0219
H  2.1029  1.0732 -0.0151
H -2.1725  0.9290 -0.0079
        
