%NProcShared=2
#n M06L/6-311++G** SCRF=(Solvent=Water) Opt=(TS,CalcFC,noeigentest)

 Title

-1 1
O -2.3174 -1.0655  1.0513
B -1.8731 -0.0024  0.1135
O -2.5025 -0.1531 -1.1823
O -2.3312  1.2825  0.6874
C -0.3112 -0.0020  0.0533
C  0.4339  1.0014  0.6357
F -0.2210  2.0028  1.2710
C  1.8287  0.9952  0.5780
C  2.5033 -0.0142 -0.0630
F  3.8674 -0.0481 -0.1364
C  1.7632 -1.0156 -0.6444
F  2.4286 -2.0078 -1.2746
C  0.3717 -1.0115 -0.5881
F -0.2934 -2.0248 -1.1796
H -1.5554 -1.3541  1.5862
H -1.9023 -0.3269 -1.9276
H -2.2617  1.9634 -0.0156
H  2.3725  1.7807  1.0354
        
