%NProcShared=2
#n M06L/6-311++G** SCRF=(Solvent=Water) Opt

 Title

-1 1
C  0.0203 -1.6016  0.0074
C -1.2165 -0.9887 -0.0062
F -2.3738 -1.7090 -0.0130
C -1.2195  0.3914 -0.0125
C -0.0513  1.1238 -0.0055
F -0.0823  2.4932 -0.0120
C  1.1833  0.5095  0.0081
F  2.3273  1.2459  0.0147
C  1.1897 -0.8693  0.0144
F  2.4141 -1.4679  0.0278
H -2.1914  0.8726 -0.0232
        
