%NProcShared=2
#n M06L/6-311++G** SCRF=(Solvent=Water) Opt

 Title

-1 1
C -0.0260 -1.5812 -0.0262
C  1.1672 -0.9178 -0.1439
F  2.3577 -1.5659 -0.2853
C  1.2173  0.4595 -0.1240
F  2.3944  1.1332 -0.2398
C  0.0250  1.1414  0.0182
C -1.1666  0.4570  0.1354
F -2.3534  1.1298  0.2769
C -1.2282 -0.9240  0.1167
F -2.4177 -1.5626  0.2344
H  0.0303  2.2306  0.0376
        
