%NProcShared=2
#n M06L/6-311++G** SCRF=(Solvent=Water) Opt=(TS,CalcFC,noeigentest)

 Title

-1 1
O -2.3963  0.1054  1.3039
B -1.8094 -0.0140 -0.0364
O -2.3156  1.1106 -0.8327
O -2.3307 -1.2594 -0.6169
C -0.2445  0.0148 -0.0042
C  0.4246 -0.9739  0.6675
F -0.2499 -1.9661  1.2977
C  1.8066 -0.9666  0.7079
F  2.4303 -1.9622  1.3828
C  2.5190  0.0461  0.0656
C  1.8656  1.0500 -0.6157
F  2.5766  2.0208 -1.2305
C  0.4857  1.0166 -0.6388
F -0.2095  1.9763 -1.2923
H -1.9177  0.8667  1.7428
H -2.2213  0.9389 -1.8095
H -2.0025 -2.0674 -0.1803
H  3.5890  0.0633  0.0893
        
