%NProcShared=2
#n M06L/6-311++G** SCRF=(Solvent=Water) Opt=(TS,CalcFC,noeigentest)

 Title

-1 1
C  3.9696  0.2062 -0.2114
O  2.9816 -0.7387  0.0754
C  1.6294 -0.4582  0.1011
C  0.7556 -1.4804  0.3983
C -0.6088 -1.2755  0.4424
C -1.1557 -0.0292  0.1888
B -2.7117  0.2156  0.2365
O -3.3263 -0.9359  0.8870
O -3.0305  1.4846  0.9204
O -3.1739  0.2577 -1.1718
C -0.2692  0.9830 -0.1069
F -0.7727  2.2109 -0.3592
C  1.0947  0.7843 -0.1525
H  3.6822  1.1987  0.1880
H  4.1637  0.3075 -1.2903
H  4.9459 -0.0420  0.2628
H  1.1693 -2.4792  0.6032
H -1.3074 -2.0685  0.6743
H -3.8595 -1.4777  0.2388
H -3.3453  2.1237  0.2220
H -2.5925 -0.3859 -1.6860
H  1.7617  1.5989 -0.3873
        
