%NProcShared=2
#n M06L/6-311++G** SCRF=(Solvent=Water) Opt

 Title

-1 1
C -2.2844  0.2198  0.1804
C -1.6421 -0.9530  0.5130
C -0.2791 -1.1160  0.4109
C  0.4687 -0.0609 -0.0472
C  1.9222 -0.2396 -0.1342
F  2.4583 -0.3251  1.1418
F  2.4227  0.8779 -0.7963
F  2.2685 -1.3827 -0.7895
C -0.1484  1.1320 -0.3867
C -1.5413  1.2802 -0.2757
F -2.0330  2.4873 -0.6721
H -2.2199 -1.8376  0.8911
H  0.1804 -2.0457  0.6690
H  0.4275  1.9633 -0.7047
        
