%NProcShared=2
#n M06L/6-311++G** SCRF=(Solvent=Water) Opt=(TS,CalcFC,noeigentest)

 Title

-1 1
F -1.0168 -2.4917  0.5238
C -0.1157 -1.4990  0.2980
C -0.5430 -0.2062  0.0576
B -2.0963  0.1086  0.0476
O -2.6755 -0.1178  1.3839
O -2.7926 -0.6843 -0.9641
O -2.2679  1.5367 -0.2583
C  0.3816  0.7919 -0.1701
C  1.7536  0.5535 -0.1690
N  2.6718  1.5977 -0.4055
O  2.2149  2.8581 -0.6386
O  3.8841  1.3669 -0.4007
C  2.1504 -0.7497  0.0745
C  1.2496 -1.7702  0.3057
H -2.2646  0.5684  1.9925
H -2.7366 -1.6230 -0.7236
H -2.6757  1.6537 -1.1597
H  0.0365  1.8075 -0.3586
H  3.2298 -0.9232  0.0725
H  1.6123 -2.7782  0.4922
        
