%NProcShared=2
#n M06L/6-311++G** SCRF=(Solvent=Water) Opt=(TS,CalcFC,noeigentest)

 Title

-1 1
C  3.7533  0.6328  0.5318
O  3.0042 -0.2164 -0.3129
C  1.6232 -0.1909 -0.1952
C  0.9139 -1.0232 -1.0247
C -0.4570 -1.0595 -0.9729
F -1.1023 -1.8986 -1.8138
C -1.0964 -0.2339 -0.0616
B -2.6592 -0.2540  0.0200
O -3.1661 -1.6196 -0.1254
O -3.1453  0.6177 -1.0795
O -3.0695  0.3258  1.3053
C -0.3821  0.6066  0.7762
F -1.0260  1.4072  1.6615
C  0.9979  0.6389  0.7195
H  3.3466  1.6583  0.4324
H  3.7199  0.2832  1.6031
H  4.8176  0.5811  0.2131
H  1.4355 -1.6528 -1.7220
H -2.4536 -2.2381  0.2170
H -2.7110  1.4961 -0.9355
H -3.9153  0.8480  1.1897
H  1.5717  1.2914  1.3688
        
