%NProcShared=2
#n M06L/6-311++G** SCRF=(Solvent=Water) Opt

 Title

-1 1
C  2.4258 -0.1175  0.1261
O  1.4382 -0.2366 -0.9007
C  0.1087 -0.0686 -0.4696
C -0.6289 -1.1540 -0.0447
F  0.0124 -2.3652 -0.0744
C -1.9354 -1.0605  0.3902
F -2.6238 -2.1648  0.8012
C -2.5039  0.1940  0.3880
C -1.7781  1.2911 -0.0347
F -2.3367  2.5192 -0.0362
C -0.4836  1.1746 -0.4618
F  0.2694  2.2177 -0.8854
H  2.0201 -0.4080  1.1188
H  3.2776 -0.7730 -0.1542
H  2.7380  0.9518  0.2375
        
