%NProcShared=2
#n M06L/6-311++G** SCRF=(Solvent=Water) Opt=(TS,CalcFC,noeigentest)

 Title

-1 1
C  3.7173  0.7120  0.0890
O  2.9016  0.1449 -0.9387
C  1.5469  0.0066 -0.6137
C  0.7221  1.0721 -0.9149
F  1.1763  2.2086 -1.4970
C -0.6121  0.9318 -0.5931
F -1.4378  1.9537 -0.8752
C -1.1200 -0.2054 -0.0001
B -2.6546 -0.3085  0.3448
O -3.1923  1.0657  0.5211
O -2.7965 -0.9845  1.6347
O -3.3567 -1.0039 -0.7184
C -0.2817 -1.2619  0.2945
F -0.7925 -2.3589  0.8706
C  1.0734 -1.1438 -0.0217
F  1.8840 -2.1799  0.2695
H  3.1246  1.3776  0.7523
H  4.5528  1.2835 -0.3336
H  4.1255 -0.1323  0.6732
H -2.5394  1.5337  1.0942
H -3.0181 -1.9329  1.5687
H -3.0227 -0.7784 -1.6061
        
