%NProcShared=2
#n M06L/6-311++G** SCRF=(Solvent=Water) Opt

 Title

-1 1
C  0.2229 -1.0957  1.8555
C -1.0516 -0.8145  1.3866
C -1.2142 -0.1241  0.2018
C -2.5469  0.2261 -0.3878
F -3.5288 -0.2674  0.4396
F -2.6444 -0.2264 -1.6599
F -2.6327  1.6101 -0.4134
C -0.0754  0.2660 -0.4874
C  1.2035 -0.0030 -0.0450
C  2.3997  0.4436 -0.8238
F  3.1043  1.3843 -0.0559
F  3.2080 -0.5884 -1.1925
F  1.9926  1.1221 -1.9653
C  1.3463 -0.6871  1.1313
H -1.9305 -1.1247  1.9385
H -0.2041  0.7883 -1.4075
H  2.3513 -0.9093  1.4852
        
