%NProcShared=2
#n M06L/6-311++G** SCRF=(Solvent=Water) Opt=(TS,CalcFC,noeigentest)

 Title

-1 1
   O -2.9739  0.9019  0.3700
   B -2.3060 -0.2793 -0.1887
   O -2.6259 -0.3422 -1.6385
   O -2.6534 -1.5114  0.5028
   C -0.7574 -0.0804 -0.0866
   C -0.2455  1.1847  0.1070
   C  1.1137  1.3412  0.1941
   N  1.6784  2.6249  0.3928
   O  0.8692  3.7052  0.4973
   O  2.9095  2.8139  0.4780
   C  2.0038  0.2700  0.0947
   C  1.4622 -0.9822 -0.0986
   N  2.3496 -2.1085 -0.2054
   O  1.8810 -3.3806 -0.3978
   O  3.5839 -1.9595 -0.1253
   C  0.0983 -1.1573 -0.1884
   H -2.5723  1.1634  1.2395
   H -2.1873 -1.1288 -2.0029
   H -3.4519 -1.3470  1.0476
   H -0.9371  2.0337  0.1864
   H  3.0769  0.4045  0.1650
   H -0.3160 -2.1662 -0.3431
None   2  -1       8       1
        
