%NProcShared=2
#n M06L/6-311++G** SCRF=(Solvent=Water) Opt

 Title

-1 1
   C -0.0650 -1.6503  1.1073
   C  1.1745 -1.0573  0.8474
   C  1.1908  0.0857  0.0773
   N  2.4549  0.6753 -0.1775
   O  3.6331  0.1661  0.3002
   O  2.5094  1.7081 -0.8688
   C  0.0154  0.6042 -0.4064
   C -1.2191  0.0228 -0.1538
   N -2.4206  0.5681 -0.6585
   O -3.6464  0.0181 -0.4260
   O -2.3530  1.5955 -1.3448
   C -1.2524 -1.1218  0.6156
   H  2.0957 -1.4985  1.2500
   H  0.0725  1.4962 -1.0024
   H -2.1898 -1.6122  0.8404
None   1  -1       4       1
        
