%NProcShared=2
#n M06L/6-311++G** SCRF=(Solvent=Water) Opt=(TS,CalcFC,noeigentest)

 Title

-1 1
C  3.4409  0.1455  0.2424
C  1.9474  0.1167  0.1756
C  1.2589 -0.8462  0.8589
C -0.1144 -0.9537  0.8585
C -0.8246 -0.0259  0.1188
B -2.3940 -0.1301  0.1043
O -2.8800  0.2894  1.4184
O -2.8330 -1.4954 -0.2441
O -2.8768  0.7475 -0.9770
C -0.1597  0.9698 -0.5905
C  1.2201  1.0323 -0.5558
H  3.8733 -0.8629  0.1005
H  3.7622  0.4691  1.2747
H  3.8553  0.9047 -0.4426
H  1.8123 -1.5796  1.4431
H -0.6538 -1.7193  1.4022
H -3.4261  1.1122  1.3902
H -3.3190 -1.9264  0.5033
H -2.6685  0.2656 -1.8197
H -0.7607  1.6783 -1.1588
H  1.7402  1.8086 -1.1088
        
