%NProcShared=2
#n M06L/6-311++G** SCRF=(Solvent=Water) Opt=(TS,CalcFC,noeigentest)

 Title

-1 1
 O -2.4166 -0.8979  0.8661
 B -1.7987 -0.0045 -0.1172
 O -2.1622  1.3825  0.2655
 O -2.2307 -0.2470 -1.4743
 C -0.2319 -0.0897 -0.0803
 C  0.3619 -1.2959  0.2205
 C  1.7411 -1.3509  0.2481
 C  2.5227 -0.2386 -0.0156
 C  1.9378  0.9761 -0.3184
Cl  2.9054  2.4082 -0.6584
 C  0.5585  1.0186 -0.3430
 H -2.1865 -0.5542  1.7698
 H -1.4220  1.7842  0.8250
 H -3.2318 -0.1400 -1.5187
 H -0.2619 -2.1623  0.4258
 H  2.2336 -2.2796  0.4801
 H  3.6064 -0.2603  0.0008
 H  0.0750  1.9511 -0.5758
        
