%NProcShared=2
#n M06L/6-311++G** SCRF=(Solvent=Water) Opt

 Title

-1 1
 C -0.1374 -1.6517  0.0381
 C  1.1311 -1.0975  0.0775
 C  1.2875  0.2736  0.0477
 C  0.1855  1.1035 -0.0214
 C -1.0782  0.5638 -0.0611
Cl -2.5159  1.5947 -0.1499
 C -1.2297 -0.8048 -0.0311
 H  2.0227 -1.7074  0.1318
 H  2.2881  0.7259  0.0785
 H  0.3014  2.1865 -0.0453
 H -2.2551 -1.1865 -0.0648
        
