%NProcShared=2
#n M06L/6-311++G** SCRF=(Solvent=Water) Opt=(TS,CalcFC,noeigentest)
 Title

-1 1
C -0.420843    0.254682    0.32075
B  1.693503   -0.727599   -0.18988
O  2.296650   -0.583212    1.05263
O  1.208524   -1.980671   -0.55398
H  0.884851   -2.448810    0.21911
O  2.116859    0.109330   -1.22810
H  2.145658    2.106436   -0.11215
H  0.917130    1.574294    0.59568
O  1.684430    2.204736    0.72835
H  1.628956   -0.077947   -2.03360
H  2.406910    0.361136    1.23552
S -1.492618    0.575705   -1.02015
C -2.922040   -0.042152   -0.25829
C -2.602910   -0.483685    0.99842
C -1.219962   -0.312022    1.30366
H -0.804794   -0.628367    2.26086
H -3.887118   -0.047049   -0.74855
H -3.334390   -0.915378    1.67671

