%NProcShared=2
#n M06L/6-311++G** SCRF=(Solvent=Water) Opt=(TS,CalcFC,noeigentest)
 Title

-1 1
C -1.351190   -0.473556   -0.70077
B  0.988623   -0.289788    0.11473
O  0.711271    0.201936    1.37928
O  1.255298   -1.644534   -0.04804
H  0.761954   -2.156588    0.59695
O  1.542915    0.580068   -0.82551
H  0.045514    2.401866   -0.47025
H -0.944649    1.232132   -0.30242
O -0.758011    2.191576    0.01625
H  1.680534    0.131088   -1.66272
H  0.286146    1.068247    1.27568
C -2.305861   -0.956695    0.11675
H -1.388930   -0.957202   -1.69873
H -3.047460   -1.730886   -0.13121
H -2.405706   -0.590570    1.14730

