%NProcShared=2
#n M06L/6-311++G** SCRF=(Solvent=Water) Opt=(TS,CalcFC,noeigentest)
 Title

-1 1
C -0.445249    1.838651    0.02967
B  0.718126   -0.337907   -0.01806
O  0.232891   -0.891534   -1.19612
O  1.984295    0.240360   -0.02655
H  2.178513    0.603784   -0.89316
O  0.284925   -0.888659    1.19325
H -2.032901   -0.867036    0.67767
H -1.596537    0.435623   -0.02301
O -2.289069   -0.323899   -0.07453
H  0.654901   -0.401177    1.93274
H -0.725463   -1.003105   -1.09793
H  0.172399    2.203635   -0.80807
H  0.086650    2.136191    0.94899
H -1.361020    2.459575    0.00669

