%NProcShared=2
#n M06L/6-311++G** SCRF=(Solvent=Water) Opt=(TS,CalcFC,noeigentest)
 Title

-1 1
C -0.836057    0.050620   -0.45068
B  1.553096   -0.489948   -0.00959
O  1.651698   -0.082478    1.31367
O  1.373161   -1.842720   -0.28315
H  0.877327   -2.259110    0.42570
O  2.211583    0.265448   -0.98644
H  1.330936    2.344602   -0.26210
H  0.109417    1.401963    0.00366
O  0.576138    2.297652    0.33284
H  2.044428   -0.099266   -1.85856
H  1.462904    0.870340    1.33692
C -1.537810   -0.968158    0.49314
C -2.906106   -0.446244    0.04138
H -1.353420   -0.729394    1.55306
H -1.344902   -2.042796    0.36637
C -2.196215    0.826621   -0.42710
H -3.724694   -0.368617    0.77566
H -3.273986   -1.022485   -0.81573
H -2.211795    1.595532    0.36114
H -2.554291    1.305241   -1.34857
H -0.770918   -0.426520   -1.44540

