%NProcShared=2
#n M06L/6-311++G** SCRF=(Solvent=Water) Opt=(TS,CalcFC,noeigentest)
 Title

-1 1
C -0.276346    0.116371   -0.25096
B  2.126179   -0.492688   -0.23802
O  2.418324   -0.458276    1.12125
O  1.931185   -1.745559   -0.82477
H  1.573802   -2.359155   -0.17884
O  2.668991    0.506462   -1.05935
H  1.899118    2.383002    0.42252
H  0.780035    1.297691    0.51896
O  1.271146    2.045210    1.06797
H  2.376076    0.385944   -1.96543
H  2.258275    0.447813    1.43394
C -0.865226   -0.799767    0.81772
C -2.271099   -1.325712    0.50800
C -3.230639   -0.180706    0.20117
H -2.666215   -1.939408    1.33103
H -2.215114   -1.987526   -0.36961
H -3.364429    0.424620    1.11098
H -4.226053   -0.563852   -0.05558
C -2.689450    0.715715   -0.90787
C -1.288570    1.227378   -0.55566
H -3.387382    1.544569   -1.09762
H -2.635747    0.137046   -1.84237
H -0.197021   -1.652030    1.01474
H -0.913916   -0.251883    1.77798
H -1.391938    1.891375    0.32096
H -0.921129    1.876210   -1.36558
H -0.188441   -0.473337   -1.18112

