%NProcShared=2
#n M06L/6-311++G** SCRF=(Solvent=Water) Opt=(TS,CalcFC,noeigentest)
 Title

-1 1
C  0.432700   -0.033705    0.32222
B -1.729075    0.302128   -0.67570
O -2.303357    1.179482    0.23382
O -1.281550    0.811182   -1.89278
H -1.040741    1.735949   -1.80619
O -2.162617   -1.028647   -0.67105
H -2.094696   -1.405022    1.61996
H -0.870217   -0.505235    1.57167
O -1.617715   -0.788558    2.18656
H -1.702043   -1.536514   -1.34326
H -2.374446    0.731291    1.08964
C  1.394611    1.033825    0.26957
N  2.616833    0.675355   -0.09040
O  2.533179   -0.707277   -0.30226
C  1.232319   -1.079574   -0.04419
C  1.152549    2.475374    0.57079
C  0.975527   -2.530302   -0.23038
H  0.421706    2.906731   -0.11994
H  2.070973    3.062225    0.50190
H  0.737471    2.600228    1.57498
H  1.693993   -3.147715    0.31758
H  1.041324   -2.827398   -1.28327
H -0.025535   -2.775834    0.12593

