%NProcShared=2
#n M06L/6-311++G** SCRF=(Solvent=Water) Opt=(TS,CalcFC,noeigentest)
 Title

-1 1
C  0.412270    0.335005   -0.12884
B -1.738033   -0.726574    0.16779
O -2.290486   -0.526986   -1.08890
O -1.216343   -1.980866    0.47100
H -0.917493   -2.423773   -0.32661
O -2.219996    0.034947    1.23573
H -2.225645    2.138073    0.21561
H -0.974722    1.573825   -0.44025
O -1.722175    2.228068   -0.60063
H -1.778103   -0.205639    2.05341
H -2.423889    0.422866   -1.22152
C  1.206365   -0.195007   -1.15527
N  2.535010   -0.424504   -1.10350
C  3.114518   -0.103677    0.05420
N  2.519677    0.410112    1.13156
C  1.192226    0.614412    1.00187
H  0.751688   -0.476170   -2.11204
H  0.726481    1.038518    1.89930
H  4.188771   -0.279786    0.12738

