%NProcShared=2
#n M06L/6-311++G** SCRF=(Solvent=Water) Opt=(TS,CalcFC,noeigentest)
 Title

-1 1
C -0.199874    0.447537    0.47657
B -2.265170    0.020283   -0.74700
O -3.184860    0.667706    0.06430
O -1.832596    0.655324   -1.90743
H -1.828187    1.607656   -1.78523
O -2.243172   -1.376098   -0.74395
H -2.254391   -1.701026    1.61609
H -1.422184   -0.419694    1.55531
O -2.077406   -0.919030    2.14964
H -1.543103   -1.701442   -1.31548
H -3.208741    0.213922    0.92024
C  0.930768   -0.350249    0.18236
C  2.207234    0.242862   -0.01770
N  2.503244    1.542874    0.04694
C  1.436327    2.304486    0.33597
C  0.140393    1.811551    0.54662
H -0.631173    2.556520    0.75990
C  1.125553   -1.765113    0.01463
H  1.634215    3.376180    0.40181
C  2.449686   -1.971984   -0.26889
N  3.108144   -0.759307   -0.29141
H  4.091048   -0.629043   -0.47476
H  0.378251   -2.541989    0.10790
H  2.994150   -2.885221   -0.45752

